91885617
  -OEChem-03312601393D

 58 61  0     1  0  0  0  0  0999 V2000
    3.5038   -2.7510   -0.3277 Cl  0  0  0  0  0  0  0  0  0  0  0  0
    4.0711    2.6687    0.0521 Cl  0  0  0  0  0  0  0  0  0  0  0  0
   -4.9591    3.1962   -0.0684 O   0  0  0  0  0  0  0  0  0  0  0  0
   -6.0675   -1.9939   -1.7349 O   0  0  0  0  0  0  0  0  0  0  0  0
    6.9581    1.9985    0.1099 O   0  0  0  0  0  0  0  0  0  0  0  0
    6.4656   -2.7047   -0.2190 O   0  0  0  0  0  0  0  0  0  0  0  0
   -3.6885    0.6805    0.7857 N   0  0  0  0  0  0  0  0  0  0  0  0
   -6.0776   -0.8353    0.2793 N   0  0  0  0  0  0  0  0  0  0  0  0
   -1.6564    0.5453   -0.3241 N   0  0  0  0  0  0  0  0  0  0  0  0
   -1.7877    0.3934    2.0772 N   0  0  0  0  0  0  0  0  0  0  0  0
   -5.8993    0.4851   -0.2751 C   0  0  2  0  0  0  0  0  0  0  0  0
   -4.4166    0.8432   -0.4610 C   0  0  1  0  0  0  0  0  0  0  0  0
   -6.6242    1.5433    0.5605 C   0  0  0  0  0  0  0  0  0  0  0  0
   -4.2757    2.2905   -0.9380 C   0  0  0  0  0  0  0  0  0  0  0  0
   -6.3595    2.9348    0.0012 C   0  0  0  0  0  0  0  0  0  0  0  0
   -2.3171    0.5341    0.8514 C   0  0  0  0  0  0  0  0  0  0  0  0
   -6.1465   -1.9710   -0.5109 C   0  0  0  0  0  0  0  0  0  0  0  0
   -0.3209    0.4004   -0.2681 C   0  0  0  0  0  0  0  0  0  0  0  0
    0.3488    0.2451    0.9566 C   0  0  0  0  0  0  0  0  0  0  0  0
   -6.3369   -3.2019    0.3017 C   0  0  0  0  0  0  0  0  0  0  0  0
   -0.4490    0.2505    2.0973 C   0  0  0  0  0  0  0  0  0  0  0  0
    1.7456    0.0945    1.0031 C   0  0  0  0  0  0  0  0  0  0  0  0
    2.4854    0.0978   -0.1752 C   0  0  0  0  0  0  0  0  0  0  0  0
    0.4441    0.4000   -1.4318 C   0  0  0  0  0  0  0  0  0  0  0  0
    1.8336    0.2507   -1.3939 C   0  0  0  0  0  0  0  0  0  0  0  0
    3.9229   -0.0556   -0.1337 C   0  0  0  0  0  0  0  0  0  0  0  0
   -6.4260   -4.3967   -0.2906 C   0  0  0  0  0  0  0  0  0  0  0  0
    4.4906   -1.3281   -0.1979 C   0  0  0  0  0  0  0  0  0  0  0  0
    4.7417    1.0691   -0.0304 C   0  0  0  0  0  0  0  0  0  0  0  0
    6.1282    0.9212    0.0087 C   0  0  0  0  0  0  0  0  0  0  0  0
    5.8772   -1.4760   -0.1589 C   0  0  0  0  0  0  0  0  0  0  0  0
    6.6960   -0.3514   -0.0552 C   0  0  0  0  0  0  0  0  0  0  0  0
    7.3963    2.5936   -1.1092 C   0  0  0  0  0  0  0  0  0  0  0  0
    6.6999   -3.3707    1.0196 C   0  0  0  0  0  0  0  0  0  0  0  0
   -6.3631    0.4846   -1.2715 H   0  0  0  0  0  0  0  0  0  0  0  0
   -3.9991    0.1662   -1.2177 H   0  0  0  0  0  0  0  0  0  0  0  0
   -6.2798    1.4993    1.6012 H   0  0  0  0  0  0  0  0  0  0  0  0
   -7.7022    1.3442    0.5766 H   0  0  0  0  0  0  0  0  0  0  0  0
   -3.2292    2.6079   -0.9791 H   0  0  0  0  0  0  0  0  0  0  0  0
   -4.6823    2.4022   -1.9508 H   0  0  0  0  0  0  0  0  0  0  0  0
   -6.8031    3.0557   -0.9941 H   0  0  0  0  0  0  0  0  0  0  0  0
   -6.8077    3.6895    0.6553 H   0  0  0  0  0  0  0  0  0  0  0  0
   -4.1904    0.6998    1.6654 H   0  0  0  0  0  0  0  0  0  0  0  0
   -6.1052   -0.9238    1.2912 H   0  0  0  0  0  0  0  0  0  0  0  0
   -6.4028   -3.1203    1.3811 H   0  0  0  0  0  0  0  0  0  0  0  0
   -0.0211    0.1368    3.0891 H   0  0  0  0  0  0  0  0  0  0  0  0
    2.2446   -0.0243    1.9635 H   0  0  0  0  0  0  0  0  0  0  0  0
   -0.0421    0.5183   -2.3983 H   0  0  0  0  0  0  0  0  0  0  0  0
    2.3890    0.2569   -2.3290 H   0  0  0  0  0  0  0  0  0  0  0  0
   -6.5649   -5.2902    0.3092 H   0  0  0  0  0  0  0  0  0  0  0  0
   -6.3651   -4.5218   -1.3659 H   0  0  0  0  0  0  0  0  0  0  0  0
    7.7768   -0.4667   -0.0244 H   0  0  0  0  0  0  0  0  0  0  0  0
    7.9644    3.4954   -0.8650 H   0  0  0  0  0  0  0  0  0  0  0  0
    6.5485    2.8755   -1.7412 H   0  0  0  0  0  0  0  0  0  0  0  0
    8.0518    1.9047   -1.6515 H   0  0  0  0  0  0  0  0  0  0  0  0
    7.0777   -4.3736    0.8027 H   0  0  0  0  0  0  0  0  0  0  0  0
    5.7778   -3.4632    1.6017 H   0  0  0  0  0  0  0  0  0  0  0  0
    7.4546   -2.8319    1.6012 H   0  0  0  0  0  0  0  0  0  0  0  0
  1 28  1  0  0  0  0
  2 29  1  0  0  0  0
  3 14  1  0  0  0  0
  3 15  1  0  0  0  0
  4 17  2  0  0  0  0
  5 30  1  0  0  0  0
  5 33  1  0  0  0  0
  6 31  1  0  0  0  0
  6 34  1  0  0  0  0
  7 12  1  0  0  0  0
  7 16  1  0  0  0  0
  7 43  1  0  0  0  0
  8 11  1  0  0  0  0
  8 17  1  0  0  0  0
  8 44  1  0  0  0  0
  9 16  1  0  0  0  0
  9 18  2  0  0  0  0
 10 16  2  0  0  0  0
 10 21  1  0  0  0  0
 11 12  1  0  0  0  0
 11 13  1  0  0  0  0
 11 35  1  0  0  0  0
 12 14  1  0  0  0  0
 12 36  1  0  0  0  0
 13 15  1  0  0  0  0
 13 37  1  0  0  0  0
 13 38  1  0  0  0  0
 14 39  1  0  0  0  0
 14 40  1  0  0  0  0
 15 41  1  0  0  0  0
 15 42  1  0  0  0  0
 17 20  1  0  0  0  0
 18 19  1  0  0  0  0
 18 24  1  0  0  0  0
 19 21  2  0  0  0  0
 19 22  1  0  0  0  0
 20 27  2  0  0  0  0
 20 45  1  0  0  0  0
 21 46  1  0  0  0  0
 22 23  2  0  0  0  0
 22 47  1  0  0  0  0
 23 25  1  0  0  0  0
 23 26  1  0  0  0  0
 24 25  2  0  0  0  0
 24 48  1  0  0  0  0
 25 49  1  0  0  0  0
 26 28  2  0  0  0  0
 26 29  1  0  0  0  0
 27 50  1  0  0  0  0
 27 51  1  0  0  0  0
 28 31  1  0  0  0  0
 29 30  2  0  0  0  0
 30 32  1  0  0  0  0
 31 32  2  0  0  0  0
 32 52  1  0  0  0  0
 33 53  1  0  0  0  0
 33 54  1  0  0  0  0
 33 55  1  0  0  0  0
 34 56  1  0  0  0  0
 34 57  1  0  0  0  0
 34 58  1  0  0  0  0
M  END
> <PUBCHEM_COMPOUND_CID>
91885617

> <PUBCHEM_CONFORMER_RMSD>
1

> <PUBCHEM_CONFORMER_DIVERSEORDER>
1
32
20
11
19
18
40
13
17
24
33
4
28
16
21
35
10
27
30
25
37
31
26
39
42
15
29
23
34
41
7
3
2
12
36
9
6
8
14
5
22
38

> <PUBCHEM_MMFF94_PARTIAL_CHARGES>
40
1 -0.18
10 -0.62
11 0.3
12 0.37
14 0.28
15 0.28
16 0.72
17 0.62
18 0.31
2 -0.18
20 -0.14
21 0.16
22 -0.15
24 -0.15
25 -0.15
27 -0.3
28 0.18
29 0.18
3 -0.56
30 0.08
31 0.08
32 -0.15
33 0.28
34 0.28
4 -0.57
43 0.4
44 0.37
45 0.15
46 0.15
47 0.15
48 0.15
49 0.15
5 -0.36
50 0.15
51 0.15
52 0.15
6 -0.36
7 -0.87
8 -0.73
9 -0.62

> <PUBCHEM_EFFECTIVE_ROTOR_COUNT>
9.2

> <PUBCHEM_PHARMACOPHORE_FEATURES>
13
1 27 hydrophobe
1 3 acceptor
1 4 acceptor
1 5 acceptor
1 6 acceptor
1 7 donor
1 8 donor
1 9 acceptor
4 7 9 10 16 cation
6 18 19 22 23 24 25 rings
6 26 28 29 30 31 32 rings
6 3 11 12 13 14 15 rings
6 9 10 16 18 19 21 rings

> <PUBCHEM_HEAVY_ATOM_COUNT>
34

> <PUBCHEM_ATOM_DEF_STEREO_COUNT>
2

> <PUBCHEM_ATOM_UDEF_STEREO_COUNT>
0

> <PUBCHEM_BOND_DEF_STEREO_COUNT>
0

> <PUBCHEM_BOND_UDEF_STEREO_COUNT>
0

> <PUBCHEM_ISOTOPIC_ATOM_COUNT>
0

> <PUBCHEM_COMPONENT_COUNT>
1

> <PUBCHEM_CACTVS_TAUTO_COUNT>
14

> <PUBCHEM_CONFORMER_ID>
057A103100000001

> <PUBCHEM_MMFF94_ENERGY>
122.6527

> <PUBCHEM_FEATURE_SELFOVERLAP>
66.007

> <PUBCHEM_SHAPE_FINGERPRINT>
117089 54 17903358453329105843
11719270 70 17632011945155422374
11796584 16 18270964527540020735
12082328 90 18412260645032140093
12106331 60 16415491445038876513
12236239 1 18272088279714931772
12645989 146 18335141951521379068
1361 4 18411699923935487615
13690498 29 18270955852243743799
13782708 43 18413669123406121523
14856354 85 16415484904589635381
14933364 13 18336548226714306965
15131766 46 18269550710791580036
15183329 4 18187642445338407235
15352257 5 18272932734910782083
15461852 350 18337962276419727956
1577012 14 18412827984183999660
19841028 212 18196369226928511658
21033648 29 18113899399192623488
21130935 74 18410011022772382346
21781051 124 17060348435425380038
23559900 14 17313401006561715972
23569943 247 17461432530122390474
24771293 8 17749111127768020180
335507 130 18335708281893487449
3383291 50 16878239631499358017
4073 2 18260554428404007067
4098825 35 18411136918131024041
4144715 1 18270971133041628941
439807 62 18343582975898676315
4625314 4 18340771438286481478
504579 68 18187915171888677167
5265222 85 18130222778070544999
6376802 90 18127136277976691765
6691757 9 16225767453707361584
68570916 9 18409730677008041380
77296 10 18411983563543131573
9831232 110 18198911306095714894

> <PUBCHEM_SHAPE_MULTIPOLES>
660.04
24.03
4.06
1.27
2.8
2.99
0.26
5.17
-2.78
3.27
-0.43
0.43
-0.02
-1.71

> <PUBCHEM_SHAPE_SELFOVERLAP>
1410.48

> <PUBCHEM_SHAPE_VOLUME>
365.8

> <PUBCHEM_COORDINATE_TYPE>
2
5
10

$$$$
