118036971
  -OEChem-03312601403D

 67 70  0     1  0  0  0  0  0999 V2000
    6.4181    0.3462   -0.8590 O   0  0  0  0  0  0  0  0  0  0  0  0
   -1.6667   -4.1581    0.3575 O   0  0  0  0  0  0  0  0  0  0  0  0
   -0.2607    1.3875   -1.8316 O   0  0  0  0  0  0  0  0  0  0  0  0
   -5.4118    4.1221   -0.9915 O   0  0  0  0  0  0  0  0  0  0  0  0
    4.5422    1.6711   -0.5379 N   0  0  0  0  0  0  0  0  0  0  0  0
    0.4220   -3.2303   -0.0315 N   0  0  0  0  0  0  0  0  0  0  0  0
    5.6226    2.4533    1.9052 N   0  0  1  0  0  0  0  0  0  0  0  0
    0.7494   -0.9278   -0.7160 N   0  0  0  0  0  0  0  0  0  0  0  0
   -1.5148   -1.8601    0.1029 N   0  0  0  0  0  0  0  0  0  0  0  0
   -3.7887   -2.4087    0.5350 N   0  0  0  0  0  0  0  0  0  0  0  0
   -4.7712    1.6756    0.2922 N   0  0  0  0  0  0  0  0  0  0  0  0
   -7.9278   -0.0047    0.9782 N   0  0  0  0  0  0  0  0  0  0  0  0
    3.3219   -3.6677   -0.2014 C   0  0  0  0  0  0  0  0  0  0  0  0
    2.6752   -2.3431   -0.4958 C   0  0  0  0  0  0  0  0  0  0  0  0
    2.4205   -4.5322    0.6600 C   0  0  0  0  0  0  0  0  0  0  0  0
    3.7863    2.5484    0.3479 C   0  0  0  0  0  0  0  0  0  0  0  0
    3.8063    1.0808   -1.6467 C   0  0  0  0  0  0  0  0  0  0  0  0
    1.0295   -4.5658    0.0541 C   0  0  0  0  0  0  0  0  0  0  0  0
    4.6642    3.3632    1.2802 C   0  0  0  0  0  0  0  0  0  0  0  0
    2.9353   -0.0467   -1.2144 C   0  0  0  0  0  0  0  0  0  0  0  0
    1.2886   -2.1367   -0.4137 C   0  0  0  0  0  0  0  0  0  0  0  0
    3.4898   -1.2794   -0.9106 C   0  0  0  0  0  0  0  0  0  0  0  0
    6.5491    1.9448    0.8928 C   0  0  0  0  0  0  0  0  0  0  0  0
    5.8227    1.2235   -0.2269 C   0  0  0  0  0  0  0  0  0  0  0  0
    1.5682    0.0768   -1.1001 C   0  0  0  0  0  0  0  0  0  0  0  0
    6.3614    3.1383    2.9661 C   0  0  0  0  0  0  0  0  0  0  0  0
   -0.9891   -3.1484    0.1435 C   0  0  0  0  0  0  0  0  0  0  0  0
    0.8935    1.3308   -1.3995 C   0  0  0  0  0  0  0  0  0  0  0  0
   -2.8599   -1.4580    0.2876 C   0  0  0  0  0  0  0  0  0  0  0  0
   -3.1405   -0.1039    0.1995 C   0  0  0  0  0  0  0  0  0  0  0  0
   -4.4591    0.3004    0.3766 C   0  0  0  0  0  0  0  0  0  0  0  0
   -5.4429   -0.6483    0.6327 C   0  0  0  0  0  0  0  0  0  0  0  0
   -5.0593   -1.9781    0.7016 C   0  0  0  0  0  0  0  0  0  0  0  0
   -3.7872    2.6784    0.0312 C   0  0  0  0  0  0  0  0  0  0  0  0
   -4.4325    4.0538    0.0374 C   0  0  0  0  0  0  0  0  0  0  0  0
   -6.8143   -0.2931    0.8234 C   0  0  0  0  0  0  0  0  0  0  0  0
   -6.0401    5.3960   -1.0289 C   0  0  0  0  0  0  0  0  0  0  0  0
    3.5316   -4.1735   -1.1518 H   0  0  0  0  0  0  0  0  0  0  0  0
    4.2761   -3.5202    0.3178 H   0  0  0  0  0  0  0  0  0  0  0  0
    2.3705   -4.1248    1.6779 H   0  0  0  0  0  0  0  0  0  0  0  0
    2.8309   -5.5453    0.7327 H   0  0  0  0  0  0  0  0  0  0  0  0
    3.1017    1.9215    0.9315 H   0  0  0  0  0  0  0  0  0  0  0  0
    3.1938    3.2373   -0.2626 H   0  0  0  0  0  0  0  0  0  0  0  0
    4.5258    0.6909   -2.3793 H   0  0  0  0  0  0  0  0  0  0  0  0
    3.2817    1.8745   -2.1869 H   0  0  0  0  0  0  0  0  0  0  0  0
    1.0476   -4.9827   -0.9607 H   0  0  0  0  0  0  0  0  0  0  0  0
    0.3994   -5.2261    0.6599 H   0  0  0  0  0  0  0  0  0  0  0  0
    5.1754    4.1632    0.7284 H   0  0  0  0  0  0  0  0  0  0  0  0
    4.0242    3.8403    2.0321 H   0  0  0  0  0  0  0  0  0  0  0  0
    4.5607   -1.4397   -1.0008 H   0  0  0  0  0  0  0  0  0  0  0  0
    7.2327    1.2213    1.3533 H   0  0  0  0  0  0  0  0  0  0  0  0
    7.1477    2.7468    0.4426 H   0  0  0  0  0  0  0  0  0  0  0  0
    7.0647    2.4513    3.4501 H   0  0  0  0  0  0  0  0  0  0  0  0
    5.6766    3.4868    3.7473 H   0  0  0  0  0  0  0  0  0  0  0  0
    6.9241    4.0009    2.5908 H   0  0  0  0  0  0  0  0  0  0  0  0
    1.4457    2.2675   -1.2490 H   0  0  0  0  0  0  0  0  0  0  0  0
   -0.8732   -1.0922   -0.0530 H   0  0  0  0  0  0  0  0  0  0  0  0
   -2.3372    0.5961   -0.0016 H   0  0  0  0  0  0  0  0  0  0  0  0
   -5.7394    1.9512    0.4096 H   0  0  0  0  0  0  0  0  0  0  0  0
   -5.7782   -2.7683    0.8984 H   0  0  0  0  0  0  0  0  0  0  0  0
   -3.3335    2.5094   -0.9528 H   0  0  0  0  0  0  0  0  0  0  0  0
   -3.0001    2.6638    0.7938 H   0  0  0  0  0  0  0  0  0  0  0  0
   -3.6657    4.8175   -0.1366 H   0  0  0  0  0  0  0  0  0  0  0  0
   -4.9072    4.2466    1.0073 H   0  0  0  0  0  0  0  0  0  0  0  0
   -6.7788    5.3918   -1.8348 H   0  0  0  0  0  0  0  0  0  0  0  0
   -5.3052    6.1807   -1.2331 H   0  0  0  0  0  0  0  0  0  0  0  0
   -6.5551    5.5977   -0.0847 H   0  0  0  0  0  0  0  0  0  0  0  0
  1 24  2  0  0  0  0
  2 27  2  0  0  0  0
  3 28  2  0  0  0  0
  4 35  1  0  0  0  0
  4 37  1  0  0  0  0
  5 16  1  0  0  0  0
  5 17  1  0  0  0  0
  5 24  1  0  0  0  0
  6 18  1  0  0  0  0
  6 21  1  0  0  0  0
  6 27  1  0  0  0  0
  7 19  1  0  0  0  0
  7 23  1  0  0  0  0
  7 26  1  0  0  0  0
  8 21  2  0  0  0  0
  8 25  1  0  0  0  0
  9 27  1  0  0  0  0
  9 29  1  0  0  0  0
  9 57  1  0  0  0  0
 10 29  2  0  0  0  0
 10 33  1  0  0  0  0
 11 31  1  0  0  0  0
 11 34  1  0  0  0  0
 11 59  1  0  0  0  0
 12 36  3  0  0  0  0
 13 14  1  0  0  0  0
 13 15  1  0  0  0  0
 13 38  1  0  0  0  0
 13 39  1  0  0  0  0
 14 21  1  0  0  0  0
 14 22  2  0  0  0  0
 15 18  1  0  0  0  0
 15 40  1  0  0  0  0
 15 41  1  0  0  0  0
 16 19  1  0  0  0  0
 16 42  1  0  0  0  0
 16 43  1  0  0  0  0
 17 20  1  0  0  0  0
 17 44  1  0  0  0  0
 17 45  1  0  0  0  0
 18 46  1  0  0  0  0
 18 47  1  0  0  0  0
 19 48  1  0  0  0  0
 19 49  1  0  0  0  0
 20 22  1  0  0  0  0
 20 25  2  0  0  0  0
 22 50  1  0  0  0  0
 23 24  1  0  0  0  0
 23 51  1  0  0  0  0
 23 52  1  0  0  0  0
 25 28  1  0  0  0  0
 26 53  1  0  0  0  0
 26 54  1  0  0  0  0
 26 55  1  0  0  0  0
 28 56  1  0  0  0  0
 29 30  1  0  0  0  0
 30 31  2  0  0  0  0
 30 58  1  0  0  0  0
 31 32  1  0  0  0  0
 32 33  2  0  0  0  0
 32 36  1  0  0  0  0
 33 60  1  0  0  0  0
 34 35  1  0  0  0  0
 34 61  1  0  0  0  0
 34 62  1  0  0  0  0
 35 63  1  0  0  0  0
 35 64  1  0  0  0  0
 37 65  1  0  0  0  0
 37 66  1  0  0  0  0
 37 67  1  0  0  0  0
M  END
> <PUBCHEM_COMPOUND_CID>
118036971

> <PUBCHEM_CONFORMER_RMSD>
1.2

> <PUBCHEM_CONFORMER_DIVERSEORDER>
1
44
39
51
21
41
31
16
46
35
20
13
10
3
42
32
23
24
26
38
27
9
34
40
11
12
33
22
8
5
43
28
30
7
49
4
25
19
47
36
48
18
37
2
50
15
6
29
45
17
14

> <PUBCHEM_MMFF94_PARTIAL_CHARGES>
42
1 -0.57
10 -0.62
11 -0.87
12 -0.56
13 0.14
14 -0.14
16 0.3
17 0.44
18 0.3
19 0.27
2 -0.57
20 -0.14
21 0.43
22 -0.15
23 0.33
24 0.57
25 0.4
26 0.27
27 0.69
28 0.42
29 0.43
3 -0.57
30 -0.15
31 0.1
32 0.07
33 0.16
34 0.37
35 0.28
36 0.48
37 0.28
4 -0.56
5 -0.66
50 0.15
56 0.06
57 0.37
58 0.15
59 0.4
6 -0.48
60 0.15
7 -0.81
8 -0.62
9 -0.55

> <PUBCHEM_EFFECTIVE_ROTOR_COUNT>
11.8

> <PUBCHEM_PHARMACOPHORE_FEATURES>
13
1 1 acceptor
1 11 cation
1 11 donor
1 12 acceptor
1 2 acceptor
1 3 acceptor
1 4 acceptor
1 7 cation
1 9 donor
6 10 29 30 31 32 33 rings
6 5 7 16 19 23 24 rings
6 6 13 14 15 18 21 rings
6 8 14 20 21 22 25 rings

> <PUBCHEM_HEAVY_ATOM_COUNT>
37

> <PUBCHEM_ATOM_DEF_STEREO_COUNT>
0

> <PUBCHEM_ATOM_UDEF_STEREO_COUNT>
0

> <PUBCHEM_BOND_DEF_STEREO_COUNT>
0

> <PUBCHEM_BOND_UDEF_STEREO_COUNT>
0

> <PUBCHEM_ISOTOPIC_ATOM_COUNT>
0

> <PUBCHEM_COMPONENT_COUNT>
1

> <PUBCHEM_CACTVS_TAUTO_COUNT>
91

> <PUBCHEM_CONFORMER_ID>
070919EB00000001

> <PUBCHEM_MMFF94_ENERGY>
109.4548

> <PUBCHEM_FEATURE_SELFOVERLAP>
66

> <PUBCHEM_SHAPE_FINGERPRINT>
12422481 6 17894899755350490166
12925494 130 18191026708170370693
14223995 32 18411133611428582420
14394314 77 18341061744476264161
14739800 52 18413386544802293914
14790565 3 18189915256327257964
15320467 1 18336557092075373909
15420108 30 18268142235969241302
16067690 210 17828753285551373080
19053607 189 18260554398207964964
19246450 95 18267560525914487896
21033648 29 18196656405072151794
21133410 221 17198801288721090624
21859007 373 18270406104740215822
23522609 53 17246953340362220564
23569914 2 17128133365959389432
3918712 181 18265061399470610868
4144715 1 18115323184703245979
508180 173 18122086216501555522
6176135 31 18337678628058274737
6371009 1 18192426596266122167
6371380 46 18341620373802978462
6677587 24 17418085486766753556
9961470 85 18120087287287988565
9981440 41 18263370359266755395

> <PUBCHEM_SHAPE_MULTIPOLES>
698.12
18.27
7.13
1.52
10.37
0.31
-0.47
19.53
-6.47
2.17
-0.79
-2.36
1.54
4.99

> <PUBCHEM_SHAPE_SELFOVERLAP>
1482.828

> <PUBCHEM_SHAPE_VOLUME>
381.9

> <PUBCHEM_COORDINATE_TYPE>
2
5
10

$$$$
